REMARK  Name = LIGAND
REMARK  7 active torsions:
REMARK  status: ('A' for Active; 'I' for Inactive)
REMARK    1  A    between atoms: C_1  and  C_26
REMARK    2  A    between atoms: C_6  and  C_11
REMARK    3  A    between atoms: C_11  and  N_14
REMARK    4  A    between atoms: C_24  and  C_35
REMARK    5  A    between atoms: C_40  and  C_42
REMARK    6  A    between atoms: C_42  and  C_47
REMARK    7  A    between atoms: C_47  and  C_50
REMARK                            x       y       z     vdW  Elec       q    Type
REMARK                         _______ _______ _______ _____ _____    ______ ____
ROOT
ATOM      1  C   UNL     1       6.672   2.805  -1.939  0.00  0.00    +0.022 C 
ATOM      2  C   UNL     1       5.874   4.047  -2.501  0.00  0.00    +0.027 C 
ATOM      3  C   UNL     1       4.718   3.595  -3.413  0.00  0.00    +0.108 C 
ATOM      4  N   UNL     1       3.791   2.631  -2.738  0.00  0.00    -0.297 N 
ATOM      5  C   UNL     1       2.454   2.970  -2.470  0.00  0.00    +0.248 C 
ATOM      6  O   UNL     1       1.982   4.064  -2.749  0.00  0.00    -0.270 OA
ATOM      7  C   UNL     1       4.531   1.403  -2.348  0.00  0.00    +0.108 C 
ATOM      8  C   UNL     1       5.644   1.784  -1.296  0.00  0.00    +0.027 C 
ENDROOT
BRANCH   1   9
ATOM      9  C   UNL     1       7.821   3.234  -1.002  0.00  0.00    -0.044 A 
ATOM     10  C   UNL     1       7.535   3.395   0.418  0.00  0.00    +0.004 A 
ATOM     11  C   UNL     1       8.561   3.798   1.337  0.00  0.00    +0.000 A 
ATOM     12  C   UNL     1       9.888   4.053   0.884  0.00  0.00    +0.002 A 
ATOM     13  C   UNL     1      10.211   3.905  -0.519  0.00  0.00    -0.065 A 
ATOM     14  C   UNL     1       9.172   3.497  -1.456  0.00  0.00    +0.005 A 
BRANCH  13  15
ATOM     15  C   UNL     1      11.612   4.181  -1.000  0.00  0.00    -0.051 C 
BRANCH  15  16
ATOM     16  N   UNL     1      12.684   3.713  -0.069  0.00  0.00    +0.381 N 
ATOM     17  H   UNL     1      12.502   2.779   0.266  0.00  0.00    -0.090 HD
ATOM     18  H   UNL     1      12.739   4.305   0.749  0.00  0.00    -0.090 HD
ATOM     19  H   UNL     1      13.595   3.709  -0.505  0.00  0.00    -0.090 HD
ENDBRANCH  15  16
ENDBRANCH  13  15
ENDBRANCH   1   9
BRANCH   5  20
ATOM     20  C   UNL     1       1.455   2.029  -1.856  0.00  0.00    +0.055 A 
ATOM     21  C   UNL     1       0.818   2.342  -0.622  0.00  0.00    +0.123 A 
ATOM     22  N   UNL     1      -0.065   1.538  -0.001  0.00  0.00    -0.262 NA
ATOM     23  C   UNL     1      -0.372   0.354  -0.560  0.00  0.00    +0.114 A 
ATOM     24  C   UNL     1       0.180  -0.101  -1.793  0.00  0.00    -0.028 A 
ATOM     25  C   UNL     1       1.129   0.770  -2.466  0.00  0.00    +0.019 A 
BRANCH  24  26
ATOM     26  C   UNL     1      -0.191  -1.437  -2.350  0.00  0.00    +0.041 C 
BRANCH  26  27
ATOM     27  C   UNL     1      -0.298  -1.442  -3.870  0.00  0.00    +0.040 C 
BRANCH  27  28
ATOM     28  C   UNL     1       0.503  -2.482  -4.613  0.00  0.00    -0.047 A 
ATOM     29  C   UNL     1       0.616  -3.836  -4.074  0.00  0.00    +0.003 A 
ATOM     30  C   UNL     1       1.367  -4.834  -4.774  0.00  0.00    +0.000 A 
ATOM     31  C   UNL     1       2.033  -4.525  -6.027  0.00  0.00    +0.000 A 
ATOM     32  C   UNL     1       1.930  -3.196  -6.570  0.00  0.00    +0.000 A 
ATOM     33  C   UNL     1       1.160  -2.176  -5.854  0.00  0.00    +0.003 A 
ENDBRANCH  27  28
ENDBRANCH  26  27
ENDBRANCH  24  26
ENDBRANCH   5  20
TORSDOF 7
